
**** 01/21/25 20:41:53 ******* PSpice Lite (March 2016) ******* ID# 10813 ****

 ** Profile: "SCHEMATIC1-bode_low"  [ C:\Users\wange\Desktop\course work\EEC_SeniorDesign\EEC_SeniorDesign-PSpiceFiles\SCHEMATIC1\bod


 ****     CIRCUIT DESCRIPTION


******************************************************************************




** Creating circuit file "bode_low.cir" 
** WARNING: THIS AUTOMATICALLY GENERATED FILE MAY BE OVERWRITTEN BY SUBSEQUENT SIMULATIONS

*Libraries: 
* Profile Libraries :
* Local Libraries :
* From [PSPICE NETLIST] section of C:\Users\wange\AppData\Roaming\SPB_Data\cdssetup\OrCAD_PSpice\17.2.0\PSpice.ini file:
.lib "nomd.lib" 

*Analysis directives: 
.AC DEC 100 1 1000
.OPTIONS ADVCONV
.PROBE64 V(alias(*)) I(alias(*)) W(alias(*)) D(alias(*)) NOISE(alias(*)) 
.INC "..\SCHEMATIC1.net" 



**** INCLUDING SCHEMATIC1.net ****
* source EEC_SENIORDESIGN
V_V1         VIN 0  AC <AC>
------------------------$
ERROR(ORPSIM-16492): Missing value
+SIN 0 10 <FREQ> 0 0 0
R_R2         N00673 N00587  110k TC=0,0 
C_C2         N00587 VOUT  0.047u  TC=0,0 
E_U1         VOUT 0 VALUE {LIMIT(V(N00693,VOUT)*1E6,-15V,+15V)}
C_C3         0 N00673  0.1u  TC=0,0 
R_R3         N00587 N00693  33k TC=0,0 
R_R1         VIN N00673  11k TC=0,0 
C_C1         0 N00693  0.0068u  TC=0,0 

**** RESUMING bode_low.cir ****
.END
