
**** 01/21/25 23:42:12 ******* PSpice Lite (March 2016) ******* ID# 10813 ****

 ** Profile: "SCHEMATIC1-bode_low"  [ C:\Users\wange\Desktop\course work\EEC_SeniorDesign\EEC_SeniorDesign-PSpiceFiles\SCHEMATIC1\bod


 ****     CIRCUIT DESCRIPTION


******************************************************************************




** Creating circuit file "bode_low.cir" 
** WARNING: THIS AUTOMATICALLY GENERATED FILE MAY BE OVERWRITTEN BY SUBSEQUENT SIMULATIONS

*Libraries: 
* Profile Libraries :
* Local Libraries :
* From [PSPICE NETLIST] section of C:\Users\wange\AppData\Roaming\SPB_Data\cdssetup\OrCAD_PSpice\17.2.0\PSpice.ini file:
.lib "nomd.lib" 

*Analysis directives: 
.AC DEC 100 1 10000
.OPTIONS ADVCONV
.PROBE64 V(alias(*)) I(alias(*)) W(alias(*)) D(alias(*)) NOISE(alias(*)) 
.INC "..\SCHEMATIC1.net" 



**** INCLUDING SCHEMATIC1.net ****
* source EEC_SENIORDESIGN
R_R2         N00673 N00587  110k TC=0,0 
C_C2         N00587 N00595  0.047u  TC=0,0 
E_U1         N00595 0 VALUE {LIMIT(V(N00693,N00595)*1E6,-15V,+15V)}
C_C3         0 N00673  0.1u  TC=0,0 
R_R3         N00587 N00693  33k TC=0,0 
R_R1         VIN N00673  11k TC=0,0 
C_C1         0 N00693  0.0068u  TC=0,0 
V_V1         VIN 0 DC 0Vdc AC 1Vac 
E_U2         VOUT 0 VALUE {LIMIT(V(N01126,VOUT)*1E6,-15V,+15V)}
C_C4         N00595 N01118  0.68u  TC=0,0 
C_C5         N01118 N01122  0.068u  TC=0,0 
C_C6         N01122 N01126  0.068u  TC=0,0 
R_R4         0 N01118  4.3k TC=0,0 
R_R6         0 N01126  100k TC=0,0 
R_R7         N01122 VOUT  22k TC=0,0 

**** RESUMING bode_low.cir ****
.END

INFO(ORPSIM-16573): AC analysis does not support expression evaluation at each frequency. ABM devices with non-linear operations will be evaluated only at bias point.

**** 01/21/25 23:42:12 ******* PSpice Lite (March 2016) ******* ID# 10813 ****

 ** Profile: "SCHEMATIC1-bode_low"  [ C:\Users\wange\Desktop\course work\EEC_SeniorDesign\EEC_SeniorDesign-PSpiceFiles\SCHEMATIC1\bod


 ****     SMALL SIGNAL BIAS SOLUTION       TEMPERATURE =   27.000 DEG C


******************************************************************************



 NODE   VOLTAGE     NODE   VOLTAGE     NODE   VOLTAGE     NODE   VOLTAGE


(  VIN)    0.0000  ( VOUT)    0.0000  (N00587)    0.0000 (N00595)    0.0000     

(N00673)    0.0000 (N00693)    0.0000 (N01118)    0.0000 (N01122)    0.0000     

(N01126)    0.0000 




    VOLTAGE SOURCE CURRENTS
    NAME         CURRENT

    V_V1         0.000E+00

    TOTAL POWER DISSIPATION   0.00E+00  WATTS



          JOB CONCLUDED

**** 01/21/25 23:42:12 ******* PSpice Lite (March 2016) ******* ID# 10813 ****

 ** Profile: "SCHEMATIC1-bode_low"  [ C:\Users\wange\Desktop\course work\EEC_SeniorDesign\EEC_SeniorDesign-PSpiceFiles\SCHEMATIC1\bod


 ****     JOB STATISTICS SUMMARY


******************************************************************************



  Total job time (using Solver 1)   =         .28
